Sulfa Drug.sdf
  ChemDraw08162114502D

 17 18  0  0  0  0  0  0  0  0999 V2000
   -2.4575    0.0553    0.0000 C   0  0  0  0  0  0  0  0  0  0  0  0
   -2.4575   -0.7697    0.0000 C   0  0  0  0  0  0  0  0  0  0  0  0
   -1.7431   -1.1822    0.0000 C   0  0  0  0  0  0  0  0  0  0  0  0
   -1.0287   -0.7697    0.0000 C   0  0  0  0  0  0  0  0  0  0  0  0
   -1.0287    0.0553    0.0000 C   0  0  0  0  0  0  0  0  0  0  0  0
   -1.7431    0.4678    0.0000 C   0  0  0  0  0  0  0  0  0  0  0  0
   -3.1725   -1.1822    0.0000 N   0  0  0  0  0  0  0  0  0  0  0  0
   -0.3142    0.4678    0.0000 S   0  0  0  0  0  0  0  0  0  0  0  0
    0.4002    0.8803    0.0000 N   0  0  0  0  0  0  0  0  0  0  0  0
    0.0983   -0.2466    0.0000 O   0  0  0  0  0  0  0  0  0  0  0  0
   -0.7267    1.1822    0.0000 O   0  0  0  0  0  0  0  0  0  0  0  0
    1.3782   -0.3160    0.0000 N   0  0  0  0  0  0  0  0  0  0  0  0
    2.2032   -0.3160    0.0000 N   0  0  0  0  0  0  0  0  0  0  0  0
    2.4581    0.4684    0.0000 C   0  0  0  0  0  0  0  0  0  0  0  0
    1.7907    0.9536    0.0000 S   0  0  0  0  0  0  0  0  0  0  0  0
    1.1232    0.4684    0.0000 C   0  0  0  0  0  0  0  0  0  0  0  0
    3.1725    0.8809    0.0000 C   0  0  0  0  0  0  0  0  0  0  0  0
  1  2  2  0      
  2  3  1  0      
  3  4  2  0      
  4  5  1  0      
  5  6  2  0      
  6  1  1  0      
  2  7  1  0      
  5  8  1  0      
  8  9  1  0      
  8 10  2  0      
  8 11  2  0      
 12 13  1  0      
 13 14  2  0      
 14 15  1  0      
 15 16  1  0      
 16 12  2  0      
  9 16  1  0      
 14 17  1  0      
M  STY  1   1 DAT
M  SLB  1   1   1
M  SAL   1 15   1   2   3   4   5   6   7   8   9  10  11  12  13  14  15
M  SAL   1  2  16  17
M  SBL   1 15   1   2   3   4   5   6   7   8   9  10  11  12  13  14  15
M  SBL   1  3  16  17  18
M  SDD   1    -4.8366   -3.8587    DA    ALL  1       5
M  SCD   1 Chemical Formula: C9H10N4O2S2	Exact Mass: 270.02	Molecular Weight: 27
M  SED   1 0.33
M  END
$$$$
Sulfa Drug.sdf
  ChemDraw08162114502D

 19 20  0  0  0  0  0  0  0  0999 V2000
   -2.5008    0.2615    0.0000 C   0  0  0  0  0  0  0  0  0  0  0  0
   -2.5008   -0.5635    0.0000 C   0  0  0  0  0  0  0  0  0  0  0  0
   -1.7858   -0.9760    0.0000 C   0  0  0  0  0  0  0  0  0  0  0  0
   -1.0714   -0.5635    0.0000 C   0  0  0  0  0  0  0  0  0  0  0  0
   -1.0714    0.2615    0.0000 C   0  0  0  0  0  0  0  0  0  0  0  0
   -1.7858    0.6740    0.0000 C   0  0  0  0  0  0  0  0  0  0  0  0
   -3.2152   -0.9760    0.0000 N   0  0  0  0  0  0  0  0  0  0  0  0
   -0.3569    0.6740    0.0000 S   0  0  0  0  0  0  0  0  0  0  0  0
    0.3575    1.0865    0.0000 N   0  0  0  0  0  0  0  0  0  0  0  0
    0.0556   -0.0404    0.0000 O   0  0  0  0  0  0  0  0  0  0  0  0
   -0.7694    1.3885    0.0000 O   0  0  0  0  0  0  0  0  0  0  0  0
    1.0719    0.6740    0.0000 C   0  0  0  0  0  0  0  0  0  0  0  0
    1.0719   -0.1510    0.0000 N   0  0  0  0  0  0  0  0  0  0  0  0
    1.7864   -0.5635    0.0000 C   0  0  0  0  0  0  0  0  0  0  0  0
    2.5008   -0.1510    0.0000 C   0  0  0  0  0  0  0  0  0  0  0  0
    2.5008    0.6740    0.0000 C   0  0  0  0  0  0  0  0  0  0  0  0
    1.7864    1.0865    0.0000 N   0  0  0  0  0  0  0  0  0  0  0  0
    1.7864   -1.3885    0.0000 C   0  0  0  0  0  0  0  0  0  0  0  0
    3.2152    1.0865    0.0000 C   0  0  0  0  0  0  0  0  0  0  0  0
  1  2  2  0      
  2  3  1  0      
  3  4  2  0      
  4  5  1  0      
  5  6  2  0      
  6  1  1  0      
  2  7  1  0      
  5  8  1  0      
  8  9  1  0      
  8 10  2  0      
  8 11  2  0      
  9 12  1  0      
 12 13  2  0      
 13 14  1  0      
 14 15  2  0      
 15 16  1  0      
 16 17  2  0      
 17 12  1  0      
 14 18  1  0      
 16 19  1  0      
M  STY  1   1 DAT
M  SLB  1   1   1
M  SAL   1 15   1   2   3   4   5   6   7   8   9  10  11  12  13  14  15
M  SAL   1  4  16  17  18  19
M  SBL   1 15   1   2   3   4   5   6   7   8   9  10  11  12  13  14  15
M  SBL   1  5  16  17  18  19  20
M  SDD   1    -4.4499   -3.4806    DA    ALL  1       5
M  SCD   1 Chemical Formula: C12H14N4O2S	Exact Mass: 278.08	Molecular Weight: 27
M  SED   1 8.33
M  END
$$$$
Sulfa Drug.sdf
  ChemDraw08162114502D

 18 19  0  0  0  0  0  0  0  0999 V2000
   -2.5005    0.0553    0.0000 C   0  0  0  0  0  0  0  0  0  0  0  0
   -2.5005   -0.7697    0.0000 C   0  0  0  0  0  0  0  0  0  0  0  0
   -1.7861   -1.1822    0.0000 C   0  0  0  0  0  0  0  0  0  0  0  0
   -1.0716   -0.7697    0.0000 C   0  0  0  0  0  0  0  0  0  0  0  0
   -1.0716    0.0553    0.0000 C   0  0  0  0  0  0  0  0  0  0  0  0
   -1.7861    0.4678    0.0000 C   0  0  0  0  0  0  0  0  0  0  0  0
   -3.2149   -1.1822    0.0000 N   0  0  0  0  0  0  0  0  0  0  0  0
   -0.3572    0.4678    0.0000 S   0  0  0  0  0  0  0  0  0  0  0  0
    0.3572    0.8803    0.0000 N   0  0  0  0  0  0  0  0  0  0  0  0
    0.0553   -0.2466    0.0000 O   0  0  0  0  0  0  0  0  0  0  0  0
   -0.7697    1.1822    0.0000 O   0  0  0  0  0  0  0  0  0  0  0  0
    1.0716    0.4678    0.0000 C   0  0  0  0  0  0  0  0  0  0  0  0
    1.0716   -0.3572    0.0000 N   0  0  0  0  0  0  0  0  0  0  0  0
    1.7861   -0.7697    0.0000 N   0  0  0  0  0  0  0  0  0  0  0  0
    2.5005   -0.3572    0.0000 C   0  0  0  0  0  0  0  0  0  0  0  0
    2.5005    0.4678    0.0000 C   0  0  0  0  0  0  0  0  0  0  0  0
    1.7861    0.8803    0.0000 C   0  0  0  0  0  0  0  0  0  0  0  0
    3.2149   -0.7697    0.0000 Cl  0  0  0  0  0  0  0  0  0  0  0  0
  1  2  2  0      
  2  3  1  0      
  3  4  2  0      
  4  5  1  0      
  5  6  2  0      
  6  1  1  0      
  2  7  1  0      
  5  8  1  0      
  8  9  1  0      
  8 10  2  0      
  8 11  2  0      
  9 12  1  0      
 12 13  2  0      
 13 14  1  0      
 14 15  2  0      
 15 16  1  0      
 16 17  2  0      
 17 12  1  0      
 15 18  1  0      
M  STY  1   1 DAT
M  SLB  1   1   1
M  SAL   1 15   1   2   3   4   5   6   7   8   9  10  11  12  13  14  15
M  SAL   1  3  16  17  18
M  SBL   1 15   1   2   3   4   5   6   7   8   9  10  11  12  13  14  15
M  SBL   1  4  16  17  18  19
M  SDD   1    -4.8675   -3.7728    DA    ALL  1       5
M  SCD   1 Chemical Formula: C10H9ClN4O2S	Exact Mass: 284.01	Molecular Weight: 2
M  SED   1 84.72
M  END
$$$$
Sulfa Drug.sdf
  ChemDraw08162114502D

 21 22  0  0  0  0  0  0  0  0999 V2000
   -2.8580    0.4678    0.0000 C   0  0  0  0  0  0  0  0  0  0  0  0
   -2.8580   -0.3572    0.0000 C   0  0  0  0  0  0  0  0  0  0  0  0
   -2.1436   -0.7697    0.0000 C   0  0  0  0  0  0  0  0  0  0  0  0
   -1.4291   -0.3572    0.0000 C   0  0  0  0  0  0  0  0  0  0  0  0
   -1.4291    0.4678    0.0000 C   0  0  0  0  0  0  0  0  0  0  0  0
   -2.1436    0.8803    0.0000 C   0  0  0  0  0  0  0  0  0  0  0  0
   -3.5724   -0.7697    0.0000 N   0  0  0  0  0  0  0  0  0  0  0  0
   -0.7147    0.8803    0.0000 S   0  0  0  0  0  0  0  0  0  0  0  0
   -0.0003    1.2928    0.0000 N   0  0  0  0  0  0  0  0  0  0  0  0
   -0.3022    0.1659    0.0000 O   0  0  0  0  0  0  0  0  0  0  0  0
   -1.1272    1.5947    0.0000 O   0  0  0  0  0  0  0  0  0  0  0  0
    0.7141    0.8803    0.0000 C   0  0  0  0  0  0  0  0  0  0  0  0
    0.7141    0.0553    0.0000 N   0  0  0  0  0  0  0  0  0  0  0  0
    1.4286   -0.3572    0.0000 C   0  0  0  0  0  0  0  0  0  0  0  0
    2.1430    0.0553    0.0000 N   0  0  0  0  0  0  0  0  0  0  0  0
    2.1430    0.8803    0.0000 C   0  0  0  0  0  0  0  0  0  0  0  0
    1.4286    1.2928    0.0000 C   0  0  0  0  0  0  0  0  0  0  0  0
    2.8574    1.2928    0.0000 O   0  0  0  0  0  0  0  0  0  0  0  0
    3.5724    0.8803    0.0000 C   0  0  0  0  0  0  0  0  0  0  0  0
    1.4286   -1.1822    0.0000 O   0  0  0  0  0  0  0  0  0  0  0  0
    0.7141   -1.5947    0.0000 C   0  0  0  0  0  0  0  0  0  0  0  0
  1  2  2  0      
  2  3  1  0      
  3  4  2  0      
  4  5  1  0      
  5  6  2  0      
  6  1  1  0      
  2  7  1  0      
  5  8  1  0      
  8  9  1  0      
  8 10  2  0      
  8 11  2  0      
  9 12  1  0      
 12 13  2  0      
 13 14  1  0      
 14 15  2  0      
 15 16  1  0      
 16 17  2  0      
 17 12  1  0      
 16 18  1  0      
 18 19  1  0      
 14 20  1  0      
 20 21  1  0      
M  STY  1   1 DAT
M  SLB  1   1   1
M  SAL   1 15   1   2   3   4   5   6   7   8   9  10  11  12  13  14  15
M  SAL   1  6  16  17  18  19  20  21
M  SBL   1 15   1   2   3   4   5   6   7   8   9  10  11  12  13  14  15
M  SBL   1  7  16  17  18  19  20  21  22
M  SDD   1    -4.3639   -3.6181    DA    ALL  1       5
M  SCD   1 Chemical Formula: C12H14N4O4S	Exact Mass: 310.07	Molecular Weight: 31
M  SED   1 0.33
M  END
$$$$
